Circuit: * D:\projects\ElecSnip\sampler_head\diode_bridge.asc

Limiting rise time of source v2 to 1e-009
Limiting fall time of source v2 to 1e-009
Direct Newton iteration for .op point succeeded.
Heightened Def Con from 4.51008e-005 to 4.51008e-005

Date: Sun Feb 26 13:36:39 2017
Total elapsed time: 1.054 seconds.

tnom = 27
temp = 27
method = modified trap
totiter = 129922
traniter = 129908
tranpoints = 50494
accept = 38133
rejected = 12362
matrix size = 18
fillins = 4
solver = Normal
Matrix Compiler1: 1.51 KB object code size  0.4/0.2/[0.1]
Matrix Compiler2: 1.56 KB object code size  0.2/0.2/[0.1]


