Circuit: * D:\projects\ElecSnip\sampler_head\diode_bridge.asc

Limiting rise time of source v2 to 1e-008
Limiting fall time of source v2 to 1e-008
WARNING: Node N008 is floating.
WARNING: Node N005 is floating.

Direct Newton iteration for .op point succeeded.
Heightened Def Con from 0.000375021 to 0.000375021

Date: Sun Mar 05 23:46:32 2017
Total elapsed time: 0.683 seconds.

tnom = 27
temp = 27
method = modified trap
totiter = 138979
traniter = 138964
tranpoints = 56397
accept = 42045
rejected = 14353
matrix size = 20
fillins = 19
solver = Normal
Matrix Compiler1: 1.92 KB object code size  0.4/0.2/[0.1]
Matrix Compiler2: 1.86 KB object code size  0.2/0.2/[0.1]


